tyrosinase_model1_0TR_uff_E=123.79_0
 OpenBabel10052622353D

 10 10  0  0  0  0  0  0  0  0999 V2000
  -18.3200  -39.4750   28.8870 C   0  0  0  0  0
  -17.5300  -38.5880   28.6050 O   0  0  0  0  0
  -18.4760  -39.7910   30.2470 C   0  0  0  0  0
  -19.3150  -40.7660   30.7850 C   0  0  0  0  0
  -20.1880  -41.6570   30.1810 C   0  0  0  0  0
  -19.9210  -41.0940   27.7830 C   0  0  0  0  0
  -18.9790  -40.0760   27.8190 C   0  0  0  0  0
  -20.4630  -41.8060   28.8360 C   0  0  0  0  0
  -17.7480  -39.0870   31.1320 O   0  0  0  0  0
  -16.8340  -38.9460   30.9800 H   0  0  0  0  0
  7  1  1  0  0  0
  2  1  2  0  0  0
  1  3  1  0  0  0
  3  4  2  0  0  0
  3  9  1  0  0  0
  5  4  1  0  0  0
  8  5  2  0  0  0
  6  7  2  0  0  0
  6  8  1  0  0  0
 10  9  1  0  0  0
M  RAD  5   4   2   5   2   6   2   7   2   8   2
M  END
>  <Vina Binding Affinity>
-5.2

$$$$
