pose_1
                    3D
 Structure written by MMmdl.
 14 14  0  0  1  0            999 V2000
  -17.7103  -38.6992   28.6002 C   0  0  0  0  0  0
  -17.4620  -37.5651   28.0879 O   0  0  0  0  0  0
  -17.3142  -39.8448   27.7574 C   0  0  0  0  0  0
  -16.5115  -39.5360   26.7795 O   0  5  0  0  0  0
  -17.8285  -41.1275   27.9113 C   0  0  0  0  0  0
  -18.6097  -41.7029   28.9225 C   0  0  0  0  0  0
  -18.5576  -39.9207   30.6581 C   0  0  0  0  0  0
  -18.1473  -38.8194   29.9546 C   0  0  0  0  0  0
  -18.8622  -41.1988   30.1953 C   0  0  0  0  0  0
  -17.6407  -41.7874   27.0581 H   0  0  0  0  0  0
  -18.9793  -42.6889   28.7204 H   0  0  0  0  0  0
  -18.7600  -39.7587   31.7176 H   0  0  0  0  0  0
  -18.0856  -37.8897   30.5063 H   0  0  0  0  0  0
  -19.3669  -41.8555   30.8919 H   0  0  0  0  0  0
  1  2  2  0  0  0
  1  3  1  0  0  0
  1  8  1  0  0  0
  3  4  1  0  0  0
  3  5  2  0  0  0
  5  6  1  0  0  0
  5 10  1  0  0  0
  6  9  2  0  0  0
  6 11  1  0  0  0
  7  8  2  0  0  0
  7  9  1  0  0  0
  7 12  1  0  0  0
  8 13  1  0  0  0
  9 14  1  0  0  0
M  CHG  1   4  -1
M  END
> <s_m_entry_id>
17

> <s_m_entry_name>
poses.1

> <s_m_Source_Path>
F:\QM_docking\qmdock\tyrosinase\state_1

> <s_m_Source_File>
poses.sdf

> <i_m_Source_File_Index>
1

> <model_server_result.job_id>
c1qsz6OhaPAGKUEdCeyURQ

> <model_server_result.datetime_utc>
2026-10-05 18:59:22

> <model_server_result.server_version>
0.9.13

> <model_server_result.query_name>
ligand

> <model_server_result.source_id>
pdb-bcif

> <model_server_result.entry_id>
5m8o

> <model_server_params.name>
atom_site

> <model_server_params.value>
{"label_asym_id":"CA","auth_seq_id":516}

> <model_server_stats.io_time_ms>
134

> <model_server_stats.parse_time_ms>
11

> <model_server_stats.create_model_time_ms>
25

> <model_server_stats.query_time_ms>
241

> <model_server_stats.encode_time_ms>
0

> <model_server_stats.element_count>
9

> <chiral flag>
0

> <version>
0

> <e_final>
-151.9639

> <e_int>
-149.3484

> <fast_score>
-8.3019

> <final_rank>
1

> <strain>
0.3573

> <rmsd_to_top>
0

> <s_m_subgroupid>
poses-imp1

> <s_m_subgroup_title>
poses

> <b_m_subgroup_collapsed>
0

$$$$
