pose_2
                    3D
 Structure written by MMmdl.
 44 45  0  0  1  0            999 V2000
   -5.3181    1.7549   16.0592 C   0  0  0  0  0  0
   -3.0270    5.4648   14.2455 C   0  0  0  0  0  0
   -3.0401    3.9470   14.0429 C   0  0  1  0  0  0
   -4.2392    7.4671   13.5278 C   0  0  0  0  0  0
   -3.8874    7.7599   12.0824 C   0  0  0  0  0  0
   -2.1403    7.6688   10.5229 C   0  0  0  0  0  0
   -0.6397    7.4762   10.4110 C   0  0  0  0  0  0
   -5.3361   -0.8359   16.2435 O   0  0  0  0  0  0
   -5.6174    0.4705   18.3684 O   0  0  0  0  0  0
   -7.4347    0.1985   16.6936 N   0  0  0  0  0  0
   -5.8466    0.3344   16.9506 S   0  0  0  0  0  0
   -4.1535    1.9849   15.3801 C   0  0  0  0  0  0
   -4.1097    3.3179   14.8997 C   0  0  0  0  0  0
   -5.2522    4.0098   15.2173 C   0  0  0  0  0  0
   -6.4003    3.1098   16.0986 S   0  0  0  0  0  0
   -5.5268    5.7129   14.8892 S   0  0  0  0  0  0
   -5.4726    6.4469   16.1312 O   0  0  0  0  0  0
   -6.7743    5.8166   14.1770 O   0  0  0  0  0  0
   -4.2925    6.0522   13.8321 N   0  0  0  0  0  0
   -3.2435    3.6698   12.6380 N   0  0  0  0  0  0
   -2.5111    7.5781   11.8868 O   0  0  0  0  0  0
   -3.1423    2.2952   12.1965 C   0  0  0  0  0  0
   -3.1389    2.2054   10.6813 C   0  0  0  0  0  0
   -2.8164    5.7241   15.2892 H   0  0  0  0  0  0
   -2.2618    5.9220   13.6214 H   0  0  0  0  0  0
   -2.0540    3.5774   14.3452 H   0  0  0  0  0  0
   -3.5513    7.9972   14.2019 H   0  0  0  0  0  0
   -5.2403    7.8497   13.6633 H   0  0  0  0  0  0
   -4.1815    8.7962   11.8479 H   0  0  0  0  0  0
   -4.4686    7.0881   11.4371 H   0  0  0  0  0  0
   -2.6736    6.8904    9.9594 H   0  0  0  0  0  0
   -2.4380    8.6492   10.1215 H   0  0  0  0  0  0
   -0.3558    6.5149   10.8262 H   0  0  0  0  0  0
   -0.1223    8.2560   10.9627 H   0  0  0  0  0  0
   -0.3432    7.5239    9.3684 H   0  0  0  0  0  0
   -7.7205    0.1115   15.7165 H   0  0  0  0  0  0
   -3.3547    1.2744   15.2571 H   0  0  0  0  0  0
   -4.0894    4.1109   12.3004 H   0  0  0  0  0  0
   -2.1542    1.9568   12.4926 H   0  0  0  0  0  0
   -3.9174    1.6464   12.6293 H   0  0  0  0  0  0
   -4.0707    2.5857   10.2854 H   0  0  0  0  0  0
   -2.9977    1.1747   10.3712 H   0  0  0  0  0  0
   -2.3234    2.8014   10.2778 H   0  0  0  0  0  0
   -8.0718    0.8399   17.1050 H   0  0  0  0  0  0
  1 11  1  0  0  0
  1 12  2  0  0  0
  1 15  1  0  0  0
  2  3  1  0  0  0
  2 19  1  0  0  0
  2 24  1  0  0  0
  2 25  1  0  0  0
  3 13  1  0  0  0
  3 20  1  0  0  0
  3 26  1  0  0  0
  4  5  1  0  0  0
  4 19  1  0  0  0
  4 27  1  0  0  0
  4 28  1  0  0  0
  5 21  1  0  0  0
  5 29  1  0  0  0
  5 30  1  0  0  0
  6  7  1  0  0  0
  6 21  1  0  0  0
  6 31  1  0  0  0
  6 32  1  0  0  0
  7 33  1  0  0  0
  7 34  1  0  0  0
  7 35  1  0  0  0
  8 11  2  0  0  0
  9 11  2  0  0  0
 10 11  1  0  0  0
 10 36  1  0  0  0
 10 44  1  0  0  0
 12 13  1  0  0  0
 12 37  1  0  0  0
 13 14  2  0  0  0
 14 15  1  0  0  0
 14 16  1  0  0  0
 16 17  2  0  0  0
 16 18  2  0  0  0
 16 19  1  0  0  0
 20 22  1  0  0  0
 20 38  1  0  0  0
 22 23  1  0  0  0
 22 39  1  0  0  0
 22 40  1  0  0  0
 23 41  1  0  0  0
 23 42  1  0  0  0
 23 43  1  0  0  0
M  END
> <s_m_entry_id>
88

> <s_m_entry_name>
poses.1

> <chiral flag>
0

> <version>
0

> <s_m_Source_Path>
F:\QM_docking\qmdock\1a42

> <s_m_Source_File>
poses.sdf

> <i_m_Source_File_Index>
1

> <final_rank>
1

> <e_final>
-35.4106

> <e_int>
-26.8033

> <strain>
2.8248

> <fast_score>
-10.4065

> <rmsd_to_top>
0

> <Resolution>
2.25

> <s_m_subgroupid>
poses-imp3

> <s_m_subgroup_title>
poses

> <b_m_subgroup_collapsed>
0

$$$$
