1A42
  DSViewer          3D                             0

 43 44  0  0  0  0  0  0  0  0999 V2000
   -5.4450    2.0670   16.0490 C   0  0
   -3.3940    5.2050   13.0190 C   0  0
   -3.0550    3.8670   13.7100 C   0  0  1  0  0  0
   -3.3490    7.4080   13.9350 C   0  0
   -2.0760    7.4260   14.7640 C   0  0
   -1.9150    9.7690   15.0590 C   0  0
   -0.8780   10.9030   15.1780 C   0  0
   -5.4250    0.9940   18.2870 O   0  0
   -7.3980    0.8170   16.9950 O   0  0
   -5.4860   -0.5450   16.4610 N   0  0
   -5.9660    0.7500   16.9970 S   0  0
   -4.3210    2.1520   15.2920 C   0  0
   -4.1650    3.3450   14.6420 C   0  0
   -5.2160    4.2000   14.9310 C   0  0
   -6.3790    3.5010   15.9790 S   0  0
   -5.2950    5.8270   14.3680 S   0  0
   -6.1600    5.8730   13.2440 O   0  0
   -5.8580    6.6800   15.3730 O   0  0
   -3.8480    6.0650   14.0900 N   0  0
   -2.7760    2.8950   12.6490 N   0  0
   -1.3070    8.5960   14.5330 O   0  0
   -1.5640    3.0110   11.8410 C   0  0
   -1.4630    1.9270   10.7540 C   0  0
   -2.5103    5.6240   12.5378 H   0  0
   -4.1808    5.0663   12.2775 H   0  0
   -2.1478    4.0039   14.2985 H   0  0
   -4.0680    8.1343   14.3139 H   0  0
   -3.1325    7.6222   12.8884 H   0  0
   -2.3433    7.3836   15.8199 H   0  0
   -1.4756    6.5538   14.5054 H   0  0
   -2.3232    9.5505   16.0458 H   0  0
   -2.7190   10.0857   14.3946 H   0  0
   -1.3582   11.7942   15.5820 H   0  0
   -0.4686   11.1265   14.1928 H   0  0
   -0.0729   10.5914   15.8435 H   0  0
   -4.4161   -0.5496   16.4431 H   0  0
   -3.6024    1.3366   15.2092 H   0  0
   -3.6024    2.9354   11.9705 H   0  0
   -1.5600    3.9885   11.3587 H   0  0
   -0.6986    2.9260   12.4982 H   0  0
   -0.5425    2.0651   10.1869 H   0  0
   -2.3180    2.0045   10.0823 H   0  0
   -1.4569    0.9424   11.2215 H   0  0
  1 11  1  0  0  0
  1 12  4  0  0  0
  1 15  4  0  0  0
  2  3  1  0  0  0
  2 19  1  0  0  0
  3 13  1  0  0  0
  3 20  1  0  0  0
  4  5  1  0  0  0
  4 19  1  0  0  0
  5 21  1  0  0  0
  6  7  1  0  0  0
  6 21  1  0  0  0
  8 11  2  0  0  0
  9 11  2  0  0  0
 10 11  1  0  0  0
 12 13  4  0  0  0
 13 14  4  0  0  0
 14 15  4  0  0  0
 14 16  1  0  0  0
 16 17  2  0  0  0
 16 18  2  0  0  0
 16 19  1  0  0  0
 20 22  1  0  0  0
 22 23  1  0  0  0
  2 24  1  0  0  0
  2 25  1  0  0  0
  3 26  1  0  0  0
  4 27  1  0  0  0
  4 28  1  0  0  0
  5 29  1  0  0  0
  5 30  1  0  0  0
  6 31  1  0  0  0
  6 32  1  0  0  0
  7 33  1  0  0  0
  7 34  1  0  0  0
  7 35  1  0  0  0
 10 36  1  0  0  0
 12 37  1  0  0  0
 20 38  1  0  0  0
 22 39  1  0  0  0
 22 40  1  0  0  0
 23 41  1  0  0  0
 23 42  1  0  0  0
 23 43  1  0  0  0
M  END
> <Resolution>
2.25

$$$$
