pose_2
                    3D
 Structure written by MMmdl.
 43 44  0  0  1  0            999 V2000
   -5.4318    1.5888   15.9109 C   0  0  0  0  0  0
   -3.1424    5.1480   13.8316 C   0  0  0  0  0  0
   -3.1838    3.6199   13.7468 C   0  0  1  0  0  0
   -4.2323    7.2545   13.3008 C   0  0  0  0  0  0
   -3.5003    8.0467   14.4086 C   0  0  0  0  0  0
   -1.1545    8.2024   14.6327 C   0  0  0  0  0  0
   -0.9994    8.6236   13.1807 C   0  0  0  0  0  0
   -5.2536   -0.9690   16.3823 O   0  0  0  0  0  0
   -7.3789    0.1124   16.5811 O   0  0  0  0  0  0
   -5.6388    0.4265   18.4014 N   0  5  0  0  0  0
   -5.9569    0.2233   16.9161 S   0  0  0  0  0  0
   -4.3434    1.7568   15.1198 C   0  0  0  0  0  0
   -4.2436    3.0896   14.6550 C   0  0  0  0  0  0
   -5.2809    3.8572   15.1012 C   0  0  0  0  0  0
   -6.3815    3.0100   16.1126 S   0  0  0  0  0  0
   -5.4909    5.5750   14.8190 S   0  0  0  0  0  0
   -6.8063    5.8292   14.2886 O   0  0  0  0  0  0
   -5.1857    6.2759   16.0555 O   0  0  0  0  0  0
   -4.4041    5.8347   13.5787 N   0  0  0  0  0  0
   -3.2969    3.0750   12.3990 N   0  0  0  0  0  0
   -2.3197    7.4324   14.8626 O   0  0  0  0  0  0
   -4.6521    2.8341   11.9216 C   0  0  0  0  0  0
   -4.6302    2.7018   10.4066 C   0  0  0  0  0  0
   -2.4305    5.5371   13.1073 H   0  0  0  0  0  0
   -2.7596    5.4060   14.8170 H   0  0  0  0  0  0
   -2.2092    3.3134   14.1517 H   0  0  0  0  0  0
   -3.7288    7.3540   12.3369 H   0  0  0  0  0  0
   -5.2389    7.6686   13.2110 H   0  0  0  0  0  0
   -4.1260    8.1871   15.2896 H   0  0  0  0  0  0
   -3.2756    9.0350   14.0153 H   0  0  0  0  0  0
   -0.3559    7.5283   14.9067 H   0  0  0  0  0  0
   -1.1577    9.0441   15.3348 H   0  0  0  0  0  0
   -0.0939    9.2001   13.0580 H   0  0  0  0  0  0
   -1.8352    9.2524   12.8873 H   0  0  0  0  0  0
   -0.9956    7.7375   12.5472 H   0  0  0  0  0  0
   -6.2779    1.1200   18.7296 H   0  0  0  0  0  0
   -3.6389    0.9773   14.8929 H   0  0  0  0  0  0
   -2.8246    3.7122   11.7656 H   0  0  0  0  0  0
   -5.3349    3.6356   12.2377 H   0  0  0  0  0  0
   -4.9825    1.8913   12.3726 H   0  0  0  0  0  0
   -5.6218    2.4792   10.0235 H   0  0  0  0  0  0
   -4.2786    3.6281    9.9589 H   0  0  0  0  0  0
   -3.9438    1.9051   10.1385 H   0  0  0  0  0  0
  1 11  1  0  0  0
  1 12  2  0  0  0
  1 15  1  0  0  0
  2  3  1  0  0  0
  2 19  1  0  0  0
  2 24  1  0  0  0
  2 25  1  0  0  0
  3 13  1  0  0  0
  3 20  1  0  0  0
  3 26  1  0  0  0
  4  5  1  0  0  0
  4 19  1  0  0  0
  4 27  1  0  0  0
  4 28  1  0  0  0
  5 21  1  0  0  0
  5 29  1  0  0  0
  5 30  1  0  0  0
  6  7  1  0  0  0
  6 21  1  0  0  0
  6 31  1  0  0  0
  6 32  1  0  0  0
  7 33  1  0  0  0
  7 34  1  0  0  0
  7 35  1  0  0  0
  8 11  2  0  0  0
  9 11  2  0  0  0
 10 11  1  0  0  0
 10 36  1  0  0  0
 12 13  1  0  0  0
 12 37  1  0  0  0
 13 14  2  0  0  0
 14 15  1  0  0  0
 14 16  1  0  0  0
 16 17  2  0  0  0
 16 18  2  0  0  0
 16 19  1  0  0  0
 20 22  1  0  0  0
 20 38  1  0  0  0
 22 23  1  0  0  0
 22 39  1  0  0  0
 22 40  1  0  0  0
 23 41  1  0  0  0
 23 42  1  0  0  0
 23 43  1  0  0  0
M  CHG  1  10  -1
M  END
> <s_m_entry_id>
350

> <s_m_entry_name>
poses.2

> <chiral flag>
0

> <version>
0

> <s_m_Source_Path>
F:\QM_docking\qmdock\brinzolamide_torsions\state_2

> <s_m_Source_File>
poses.sdf

> <i_m_Source_File_Index>
2

> <final_rank>
2

> <e_final>
-40.4184

> <e_int>
-49.6963

> <strain>
18.8715

> <fast_score>
-11.0123

> <rmsd_to_top>
4.4662

> <Resolution>
2.25

> <s_m_subgroupid>
poses-imp12

> <s_m_subgroup_title>
poses

> <b_m_subgroup_collapsed>
0

$$$$
