1A42_BZU_uff_E=1113.51_0
 OpenBabel10052602253D

 26 27  0  0  0  0  0  0  0  0999 V2000
   -5.6570    2.0670   16.2820 C   0  0  0  0  0
   -4.5800    5.2200   12.6620 C   0  0  0  0  0
   -5.4140    5.0590   13.9660 C   0  0  0  0  0
   -5.9310    3.3780   15.8760 C   0  0  0  0  0
   -5.2430    3.7290   14.6740 C   0  0  0  0  0
   -4.4590    2.6900   14.1770 C   0  0  0  0  0
   -4.6220    1.3890   15.1740 S   0  0  0  0  0
   -3.6720    2.8040   12.6050 S   0  0  0  0  0
   -2.2210    3.3100   12.5630 O   0  0  0  0  0
   -3.7510    1.5750   11.6870 O   0  0  0  0  0
   -4.6390    4.0410   11.7980 N   0  0  0  0  0
   -6.4170    1.2140   17.6540 S   0  0  0  0  0
   -7.8770    0.8300   17.3720 O   0  0  0  0  0
   -5.7700   -0.1450   17.9560 O   0  0  0  0  0
   -6.4610    2.0550   19.2050 N   0  0  0  0  0
   -5.7330    2.7690   19.2250 H   0  0  0  0  0
   -6.3270    1.3930   19.9690 H   0  0  0  0  0
   -5.0730    6.1400   14.8820 N   0  0  0  0  0
   -5.2920    5.8780   15.8430 H   0  0  0  0  0
   -3.6530    6.4220   14.7430 C   0  0  0  0  0
   -3.3150    7.6930   15.4930 C   0  0  0  0  0
   -4.0820    4.3610   10.4970 C   0  0  0  0  0
   -4.6110    5.7200   10.0640 C   0  0  0  0  0
   -5.8310    5.5700    9.4050 O   0  0  0  0  0
   -6.4180    6.8370    9.4360 C   0  0  0  0  0
   -7.6750    6.8390    8.5880 C   0  0  0  0  0
  7  1  1  0  0  0
  4  1  2  0  0  0
  1 12  1  0  0  0
 11  2  1  0  0  0
  2  3  1  0  0  0
  3  5  1  0  0  0
  3 18  1  0  0  0
  5  4  1  0  0  0
  6  5  2  0  0  0
  8  6  1  0  0  0
  6  7  1  0  0  0
 10  8  2  0  0  0
 11  8  1  0  0  0
  9  8  2  0  0  0
 22 11  1  0  0  0
 13 12  2  0  0  0
 12 14  2  0  0  0
 12 15  1  0  0  0
 15 16  1  0  0  0
 15 17  1  0  0  0
 20 18  1  0  0  0
 18 19  1  0  0  0
 20 21  1  0  0  0
 23 22  1  0  0  0
 24 23  1  0  0  0
 24 25  1  0  0  0
 26 25  1  0  0  0
M  RAD  9   2   3   3   2   4   2  20   3  21   4  22   3  23   3  25   3  26   4
M  END
>  <Vina Binding Affinity>
-6.7

$$$$
